1

   Abaqus 3DEXPERIENCE R2018x                                  Date 08-Mar-2022   Time 11:52:23
   For use by Supplied by Team-SolidSQUAD under license from Dassault Systemes or its subsidiary.



                         The Abaqus Software is a product of:

                           Dassault Systemes SIMULIA Corp.
                           1301 Atwood Avenue, Suite 101W
                              Johnston, RI 02919, USA
 


                   The Abaqus Software is available only under license
                   from Dassault Systemes or its subsidiary and may be
                   used or reproduced only in accordance with the terms
                   of such license.
 
                          On machine DESKTOP-VC89768 
                          you are authorized to run
                          Abaqus/Standard until 31-Dec-2055

                          Your site id is:  


 
                    For assistance or any other information you may
                    obtain contact information for your local office
                    from the world wide web at:

                      http://www.3ds.com/products/simulia/locations/

 
                * * * * * * * * * * * * * * * * * * * * * * * * * * * * * * 
                *                                                         * 
                *                   *****************                     * 
                *                   *  N O T I C E  *                     * 
                *                   *****************                     * 
                *                                                         * 
                *                                                         * 
                *               Abaqus 3DEXPERIENCE R2018x                * 
                *                                                         * 
                *          BUILD ID: 2017_11_07-18.21.41 127140           * 
                *                                                         * 
                *                                                         * 
                *  Please make sure you are using                         * 
                *  release 3DEXPERIENCE R2018x manuals                    * 
                *  plus the notes accompanying this release.              * 
                *                                                         * 
                *                                                         * 
                *                                                         * 
                *                                                         * 
                * * * * * * * * * * * * * * * * * * * * * * * * * * * * * * 


 



     PROCESSING PART, INSTANCE, AND ASSEMBLY INFORMATION
   *******************************************************


     END PROCESSING PART, INSTANCE, AND ASSEMBLY INFORMATION
   ***********************************************************




     OPTIONS BEING PROCESSED
   ***************************


  *Heading
  *Node
  *Element, type=C3D8I
  *Element, type=COH3D8
  *Element, type=C3D8I
  *Nset, nset=ASSEMBLY_PART-1-1_BOT
  *Nset, nset=ASSEMBLY_PART-1-1_BULK-1
  *Nset, nset=ASSEMBLY_PART-1-1_BULK-2
  *Nset, nset=ASSEMBLY_PART-1-1_CZ
  *Nset, nset=ASSEMBLY_PART-1-1_SIDES
  *Nset, nset=ASSEMBLY_PART-1-1_TOP
  *Nset, nset=ASSEMBLY_PART-1-1_XCRACK
  *Nset, nset=ASSEMBLY_PART-1-1_XEDGES
  *Nset, nset=ASSEMBLY_PART-1-1_YEDGES
  *Nset, nset=ASSEMBLY_PART-1-1_ZEDGES
  *Elset, elset=ASSEMBLY_PART-1-1_BOT
  *Elset, elset=ASSEMBLY_PART-1-1_BULK-1
  *Elset, elset=ASSEMBLY_PART-1-1_BULK-2
  *Elset, elset=ASSEMBLY_PART-1-1_CZ
  *Elset, elset=ASSEMBLY_PART-1-1_SIDES
  *Elset, elset=ASSEMBLY_PART-1-1_TOP
  *Elset, elset=ASSEMBLY_PART-1-1_XCRACK
  *Elset, elset=ASSEMBLY_PART-1-1_XEDGES
  *Elset, elset=ASSEMBLY_PART-1-1_YEDGES
  *Elset, elset=ASSEMBLY_PART-1-1_ZEDGES
  *Node
  *Nset, nset=ASSEMBLY_BOTL
  *Nset, nset=ASSEMBLY_TOPL
  *material, name=MATERIAL-1
  *density
  *elastic, type=ENGINEERINGCONSTANTS
  *material, name=MATERIAL-2
  *damageinitiation, criterion=QUADS
  *damageevolution, type=ENERGY, power=2.81032, mixedmodebehavior=BK
  *density
  *elastic, type=TRACTION
  *material, name=MATERIAL-3
  *density
  *elastic, type=ENGINEERINGCONSTANTS
  *orientation, name=ASSEMBLY_PART-1-1_ORI-2
  *orientation, name=ASSEMBLY_PART-1-1_ORI-1
  *solidsection, elset=ASSEMBLY_PART-1-1_BULK-2, orientation=ASSEMBLY_PART-1-1_ORI-2, material=MATERIAL-3
  *solidsection, elset=ASSEMBLY_PART-1-1_BULK-1, orientation=ASSEMBLY_PART-1-1_ORI-1, material=MATERIAL-1
  *solidsection, elset=ASSEMBLY_PART-1-1_BULK-2, orientation=ASSEMBLY_PART-1-1_ORI-2, material=MATERIAL-3
  *solidsection, elset=ASSEMBLY_PART-1-1_BULK-1, orientation=ASSEMBLY_PART-1-1_ORI-1, material=MATERIAL-1
  *cohesivesection, elset=ASSEMBLY_PART-1-1_CZ, response=TRACTIONSEPARATION, material=MATERIAL-2
  *cohesivesection, elset=ASSEMBLY_PART-1-1_CZ, response=TRACTIONSEPARATION, material=MATERIAL-2
  *surface, type=NODE, name=ASSEMBLY_PART-1-1_BOT_CNS_
  *surface, type=NODE, name=ASSEMBLY_PART-1-1_TOP_CNS_
  *surface, type=NODE, name=ASSEMBLY_PART-1-1_BOT_CNS_
  *surface, type=NODE, name=ASSEMBLY_PART-1-1_TOP_CNS_
  *coupling, constraintname=ASSEMBLY_CONSTRAINT-1, refnode=ASSEMBLY_BOTL, surface=ASSEMBLY_PART-1-1_BOT_CNS_
  *coupling, constraintname=ASSEMBLY_CONSTRAINT-2, refnode=ASSEMBLY_TOPL, surface=ASSEMBLY_PART-1-1_TOP_CNS_
  *coupling, constraintname=ASSEMBLY_CONSTRAINT-1, refnode=ASSEMBLY_BOTL, surface=ASSEMBLY_PART-1-1_BOT_CNS_
  *coupling, constraintname=ASSEMBLY_CONSTRAINT-2, refnode=ASSEMBLY_TOPL, surface=ASSEMBLY_PART-1-1_TOP_CNS_
  *coupling, constraintname=ASSEMBLY_CONSTRAINT-1, refnode=ASSEMBLY_BOTL, surface=ASSEMBLY_PART-1-1_BOT_CNS_
  *kinematic

 ***WARNING: WHENEVER A TRANSLATION (ROTATION) DOF AT A NODE IS CONSTRAINED BY 
             A KINEMATIC COUPLING DEFINITION THE TRANSLATION (ROTATION) DOFS 
             FOR THAT NODE CANNOT BE INCLUDED IN ANY OTHER CONSTRAINT INCLUDING 
             MPCS, RIGID BODIES, ETC.
  *coupling, constraintname=ASSEMBLY_CONSTRAINT-2, refnode=ASSEMBLY_TOPL, surface=ASSEMBLY_PART-1-1_TOP_CNS_
  *kinematic
  *coupling, constraintname=ASSEMBLY_CONSTRAINT-1, refnode=ASSEMBLY_BOTL, surface=ASSEMBLY_PART-1-1_BOT_CNS_
  *coupling, constraintname=ASSEMBLY_CONSTRAINT-2, refnode=ASSEMBLY_TOPL, surface=ASSEMBLY_PART-1-1_TOP_CNS_
  *boundary
  *boundary
  *boundary
  *boundary
  *boundary
  *boundary
  *cohesivesection, elset=ASSEMBLY_PART-1-1_CZ, response=TRACTIONSEPARATION, material=MATERIAL-2
  *surface, type=NODE, name=ASSEMBLY_PART-1-1_BOT_CNS_
  *surface, type=NODE, name=ASSEMBLY_PART-1-1_TOP_CNS_
  *output, field
  *output, history, frequency=1
  *elementoutput, directions=YES
  *output, field
  *output, history, frequency=1
  *elementoutput, directions=YES
  *output, field
  *output, history, frequency=1
  *elementoutput, directions=YES

 ***WARNING: THE THICKNESS IS NOT SPECIFIED OR THE SPECIFIED THICKNESS IS 
             SMALLER THAN OR EQUAL TO ZERO FOR ELEMENT 541 INSTANCE PART-1-1. 
             THE DEFAULT VALUE, 1.0, WILL BE USED

 ***WARNING: MPCS (EXTERNAL or INTERNAL, including those generated from rigid 
             body definitions), KINEMATIC COUPLINGS, AND/OR EQUATIONS WILL 
             ACTIVATE ADDITIONAL DEGREES OF FREEDOM
  *Step, name=Step-1, nlgeom=YES, inc=1000000000, unsymm=YES
  *output, field
  *output, history, frequency=1
  *Step, name=Step-1, nlgeom=YES, inc=1000000000, unsymm=YES
  *Step, name=Step-1, nlgeom=YES, inc=1000000000, unsymm=YES
  *dynamic, application=QUASI-STATIC, initial=NO
  *boundary
  *boundary
  *boundary
  *controls, reset
  *controls, parameters=TIMEINCREMENTATION
  *controls, parameters=LINESEARCH
  *controls, parameters=FIELD, field=DISPLACEMENT
  *output, field
  *nodeoutput
  *elementoutput, directions=YES
  *output, history, frequency=1
  *nodeoutput, nset=ASSEMBLY_TOPL
  *endstep

 ***WARNING: OUTPUT VARIABLE SDV HAS NO COMPONENTS IN THIS ANALYSIS FOR ELEMENT 
             TYPE C3D8I

 ***WARNING: OUTPUT REQUEST EEQUT IS NOT AVAILABLE FOR THE MATERIAL FOR ELEMENT 
             TYPE C3D8I

 ***WARNING: OUTPUT REQUEST SDEG IS NOT AVAILABLE FOR THE MATERIAL FOR ELEMENT 
             TYPE C3D8I

 ***WARNING: OUTPUT REQUEST SEQUT IS NOT AVAILABLE FOR THE MATERIAL FOR ELEMENT 
             TYPE C3D8I

 ***WARNING: OUTPUT REQUEST TE IS NOT AVAILABLE FOR THE MATERIAL FOR ELEMENT 
             TYPE C3D8I

 ***WARNING: OUTPUT REQUEST TEEQ IS NOT AVAILABLE FOR THE MATERIAL FOR ELEMENT 
             TYPE C3D8I

 ***WARNING: OUTPUT REQUEST TEVOL IS NOT AVAILABLE FOR THE MATERIAL FOR ELEMENT 
             TYPE C3D8I

 ***WARNING: OUTPUT VARIABLE SDV HAS NO COMPONENTS IN THIS ANALYSIS FOR ELEMENT 
             TYPE COH3D8

 ***WARNING: OUTPUT REQUEST EEQUT IS NOT AVAILABLE FOR THE MATERIAL FOR ELEMENT 
             TYPE COH3D8

 ***WARNING: OUTPUT REQUEST SEQUT IS NOT AVAILABLE FOR THE MATERIAL FOR ELEMENT 
             TYPE COH3D8

 ***WARNING: OUTPUT REQUEST TE IS NOT AVAILABLE FOR THE MATERIAL FOR ELEMENT 
             TYPE COH3D8

 ***WARNING: OUTPUT REQUEST TEEQ IS NOT AVAILABLE FOR THE MATERIAL FOR ELEMENT 
             TYPE COH3D8

 ***WARNING: OUTPUT REQUEST TEVOL IS NOT AVAILABLE FOR THE MATERIAL FOR ELEMENT 
             TYPE COH3D8

 ***WARNING: OUTPUT REQUEST STATUS IS NOT AVAILABLE FOR THE MATERIAL FOR 
             ELEMENT TYPE C3D8I
  *Step, name=Step-1, nlgeom=YES, inc=1000000000, unsymm=YES
  *dynamic, application=QUASI-STATIC, initial=NO
  *boundary
  *boundary
  *boundary
  *endstep

 ***WARNING: DEGREE OF FREEDOM 2 IS NOT ACTIVE ON NODE 3 INSTANCE PART-1-1 - 
             THIS BOUNDARY CONDITION IS IGNORED

 ***WARNING: DEGREE OF FREEDOM 2 IS NOT ACTIVE ON NODE 4 INSTANCE PART-1-1 - 
             THIS BOUNDARY CONDITION IS IGNORED

 ***WARNING: DEGREE OF FREEDOM 2 IS NOT ACTIVE ON NODE 22 INSTANCE PART-1-1 - 
             THIS BOUNDARY CONDITION IS IGNORED

 ***WARNING: DEGREE OF FREEDOM 2 IS NOT ACTIVE ON NODE 23 INSTANCE PART-1-1 - 
             THIS BOUNDARY CONDITION IS IGNORED

 ***WARNING: Boundary conditions are specified on inactive dof of 4 nodes. The 
             nodes have been identified in node set WarnNodeBCInactiveDof.



                            P R O B L E M   S I Z E


          NUMBER OF ELEMENTS IS                                   760
          NUMBER OF NODES IS                                     5310
          NUMBER OF NODES DEFINED BY THE USER                    1710
          NUMBER OF INTERNAL NODES GENERATED BY THE PROGRAM      3600
          TOTAL NUMBER OF VARIABLES IN THE MODEL                14496
          (DEGREES OF FREEDOM PLUS MAX NO. OF ANY LAGRANGE MULTIPLIER
           VARIABLES. INCLUDE *PRINT,SOLVE=YES TO GET THE ACTUAL NUMBER.)



                              END OF USER INPUT PROCESSING



     JOB TIME SUMMARY
       USER TIME (SEC)      =  0.10000    
       SYSTEM TIME (SEC)    =  0.20000    
       TOTAL CPU TIME (SEC) =  0.30000    
       WALLCLOCK TIME (SEC) =          3
1

   Abaqus 3DEXPERIENCE R2018x                                  Date 08-Mar-2022   Time 11:52:30
   For use by Supplied by Team-SolidSQUAD under license from Dassault Systemes or its subsidiary.

                                                                                               STEP    1  INCREMENT    1
                                                                                          TIME COMPLETED IN THIS STEP   0.00    


                        S T E P       1     D Y N A M I C   A N A L Y S I S - I M P L I C I T  I N T E G R A T I O N


                                                                                          

          DYNAMIC APPLICATION PACKED SCHEME IS                 QUASI-STATIC        
          BACKWARD EULER (BWE) TIME INTEGRATOR IS USED

     AUTOMATIC TIME CONTROL WITH -
          A SUGGESTED INITIAL TIME INCREMENT OF                0.100    
          AND A TOTAL TIME PERIOD OF                            1.00    
          THE MINIMUM TIME INCREMENT ALLOWED IS                1.000E-05
          THE MAXIMUM TIME INCREMENT ALLOWED IS                0.100    

          THE HALF-INCREMENT RESIDUALS WILL NOT BE CALCULATED

          INITIAL ACCELERATIONS WILL NOT BE CALCULATED
          AGGRESSIVE   TIME INCREMENTATION IS USED
          STEP AMPLITUDE IS                                    RAMP

          LARGE DISPLACEMENT THEORY WILL BE USED

          UNSYMMETRIC MATRIX STORAGE AND SOLUTION WILL BE USED



                    TOTAL MASS OF MODEL

                      1.2600000E-06


                    LOCATION OF THE CENTER OF MASS OF THE MODEL

                       51.71429          0.5000000           3.451429    


                    MOMENTS OF INERTIA ABOUT THE ORIGIN
                           I(XX)               I(YY)               I(ZZ)

                      2.0530340E-05      4.4514607E-03      4.4321903E-03


                    PRODUCTS OF INERTIA ABOUT THE ORIGIN
                           I(XY)               I(XZ)               I(YZ)

                     -3.2580000E-05     -2.2867200E-04     -2.1744000E-06


                    MOMENTS OF INERTIA ABOUT THE CENTER OF MASS
                           I(XX)               I(YY)               I(ZZ)

                      5.2057677E-06      1.0667483E-03      1.0621725E-03


                    PRODUCTS OF INERTIA ABOUT THE CENTER OF MASS
                           I(XY)               I(XZ)               I(YZ)

                      7.3183647E-19     -3.7769143E-06      7.1574284E-20
  
                   M E M O R Y   E S T I M A T E
  
 PROCESS      FLOATING PT       MINIMUM MEMORY        MEMORY TO
              OPERATIONS           REQUIRED          MINIMIZE I/O
             PER ITERATION           (MB)               (MB)
  
     1          1.17E+08               21                 54
  
 NOTE:
      (1) SINCE ABAQUS DOES NOT PRE-ALLOCATE MEMORY AND ONLY ALLOCATES MEMORY AS NEEDED DURING THE ANALYSIS,
          THE MEMORY REQUIREMENT PRINTED HERE CAN ONLY BE VIEWED AS A GENERAL GUIDELINE BASED ON THE BEST
          KNOWLEDGE AVAILABLE AT THE BEGINNING OF A STEP BEFORE THE SOLUTION PROCESS HAS BEGUN.
      (2) THE ESTIMATE IS NORMALLY UPDATED AT THE BEGINNING OF EVERY STEP. IT IS THE MAXIMUM VALUE OF THE
          ESTIMATE FROM THE CURRENT STEP TO THE LAST STEP OF THE ANALYSIS, WITH UNSYMMETRIC SOLUTION TAKEN
          INTO ACCOUNT IF APPLICABLE. 
      (3) SINCE THE ESTIMATE IS BASED ON THE ACTIVE DEGREES OF FREEDOM IN THE FIRST ITERATION OF THE 
          CURRENT STEP, THE MEMORY ESTIMATE MIGHT BE SIGNIFICANTLY DIFFERENT THAN ACTUAL USAGE FOR 
          PROBLEMS WITH SUBSTANTIAL CHANGES IN ACTIVE DEGREES OF FREEDOM BETWEEN STEPS (OR EVEN WITHIN
          THE SAME STEP). EXAMPLES ARE: PROBLEMS WITH SIGNIFICANT CONTACT CHANGES, PROBLEMS WITH MODEL
          CHANGE, PROBLEMS WITH BOTH STATIC STEP AND STEADY STATE DYNAMIC PROCEDURES WHERE ACOUSTIC 
          ELEMENTS WILL ONLY BE ACTIVATED IN THE STEADY STATE DYNAMIC STEPS.
      (4) FOR MULTI-PROCESS EXECUTION, THE ESTIMATED VALUE OF FLOATING POINT OPERATIONS FOR EACH PROCESS
          IS BASED ON AN INITIAL SCHEDULING OF OPERATIONS AND MIGHT NOT REFLECT THE ACTUAL FLOATING 
          POINT OPERATIONS COMPLETED ON EACH PROCESS. OPERATIONS ARE DYNAMICALLY BALANCED DURING EXECUTION, 
          SO THE ACTUAL BALANCE OF OPERATIONS BETWEEN PROCESSES IS EXPECTED TO BE BETTER THAN THE ESTIMATE
          PRINTED HERE.
      (5) THE UPPER LIMIT OF MEMORY THAT CAN BE ALLOCATED BY ABAQUS WILL IN GENERAL DEPEND ON THE VALUE OF
          THE "MEMORY" PARAMETER AND THE AMOUNT OF PHYSICAL MEMORY AVAILABLE ON THE MACHINE. PLEASE SEE
          THE "ABAQUS ANALYSIS USER'S MANUAL" FOR MORE DETAILS. THE ACTUAL USAGE OF MEMORY AND OF DISK
          SPACE FOR SCRATCH DATA WILL DEPEND ON THIS UPPER LIMIT AS WELL AS THE MEMORY REQUIRED TO MINIMIZE
          I/O. IF THE MEMORY UPPER LIMIT IS GREATER THAN THE MEMORY REQUIRED TO MINIMIZE I/O, THEN THE ACTUAL
          MEMORY USAGE WILL BE CLOSE TO THE ESTIMATED "MEMORY TO MINIMIZE I/O" VALUE, AND THE SCRATCH DISK
          USAGE WILL BE CLOSE-TO-ZERO; OTHERWISE, THE ACTUAL MEMORY USED WILL BE CLOSE TO THE PREVIOUSLY
          MENTIONED MEMORY LIMIT, AND THE SCRATCH DISK USAGE WILL BE ROUGHLY PROPORTIONAL TO THE DIFFERENCE
          BETWEEN THE ESTIMATED "MEMORY TO MINIMIZE I/O" AND THE MEMORY UPPER LIMIT. HOWEVER ACCURATE
          ESTIMATE OF THE SCRATCH DISK SPACE IS NOT POSSIBLE.
      (6) USING "*RESTART, WRITE" CAN GENERATE A LARGE AMOUNT OF DATA WRITTEN IN THE WORK DIRECTORY.


          THE ANALYSIS HAS BEEN COMPLETED



                              ANALYSIS COMPLETE
                              WITH     22 WARNING MESSAGES ON THE DAT FILE
                              AND     206 WARNING MESSAGES ON THE MSG FILE
                                      120 WARNINGS ARE FOR NUMERICAL PROBLEMS
                                       60 WARNINGS ARE FOR NEGATIVE EIGENVALUES



     JOB TIME SUMMARY
       USER TIME (SEC)      =   17.400    
       SYSTEM TIME (SEC)    =   1.2000    
       TOTAL CPU TIME (SEC) =   18.600    
       WALLCLOCK TIME (SEC) =         19
