*Heading
** Job name: ADCB_AbqImp Model name: Model-1
** Generated by: Abaqus/CAE 2018
*Preprint, echo=NO, model=NO, history=NO, contact=NO
**
** PARTS
**
*Part, name=Part-1
*Node
      1,          60.,           0.,   6.80000019
      2,          60.,           1.,   6.80000019
      3,           0.,           1.,   6.80000019
      4,           0.,           0.,   6.80000019
      5,          60.,           1.,   5.30000019
      6,           0.,           1.,   5.30000019
      7,           0.,           0.,   5.30000019
      8,          60.,           0.,   5.30000019
      9,         100.,           0.,   5.30000019
     10,         100.,           0.,   6.80000019
     11,         100.,           1.,   5.30000019
     12,         100.,           1.,   6.80000019
     13,          60.,           0.,           0.
     14,          60.,           1.,           0.
     15,         100.,           1.,           0.
     16,         100.,           0.,           0.
     17,          60.,           1.,    5.0999999
     18,         100.,           1.,    5.0999999
     19,         100.,           0.,    5.0999999
     20,          60.,           0.,    5.0999999
** ... 1688 like lines cut
*Element, type=C3D8I
 1, 104, 107, 587, 549,   1,   2,  25,  62
 2, 549, 587, 588, 550,  62,  25,  26,  61
 3, 550, 588, 589, 551,  61,  26,  27,  60
 4, 551, 589, 590, 552,  60,  27,  28,  59
 5, 552, 590, 591, 553,  59,  28,  29,  58
 6, 553, 591, 592, 554,  58,  29,  30,  57
 7, 554, 592, 593, 555,  57,  30,  31,  56
 8, 555, 593, 594, 556,  56,  31,  32,  55
 9, 556, 594, 595, 557,  55,  32,  33,  54
10, 557, 595, 596, 558,  54,  33,  34,  53
11, 558, 596, 597, 559,  53,  34,  35,  52
12, 559, 597, 598, 560,  52,  35,  36,  51
13, 560, 598, 599, 561,  51,  36,  37,  50
14, 561, 599, 600, 562,  50,  37,  38,  49
15, 562, 600, 601, 563,  49,  38,  39,  48
16, 563, 601, 602, 564,  48,  39,  40,  47
17, 564, 602, 603, 565,  47,  40,  41,  46
18, 565, 603, 604, 566,  46,  41,  42,  45
19, 566, 604, 605, 567,  45,  42,  43,  44
20, 567, 605, 106, 101,  44,  43,   3,   4
** ... 700 like lines cut
*Element, type=COH3D8
541,  17,  20, 386, 385,   5,   8, 109, 227
542, 385, 386, 387, 384, 227, 109, 110, 226
543, 384, 387, 388, 383, 226, 110, 111, 225
544, 383, 388, 389, 382, 225, 111, 112, 224
545, 382, 389, 390, 381, 224, 112, 113, 223
546, 381, 390, 391, 380, 223, 113, 114, 222
547, 380, 391, 392, 379, 222, 114, 115, 221
548, 379, 392, 393, 378, 221, 115, 116, 220
549, 378, 393, 394, 377, 220, 116, 117, 219
550, 377, 394, 395, 376, 219, 117, 118, 218
551, 376, 395, 396, 375, 218, 118, 119, 217
552, 375, 396, 397, 374, 217, 119, 120, 216
553, 374, 397, 398, 373, 216, 120, 121, 215
554, 373, 398, 399, 372, 215, 121, 122, 214
555, 372, 399, 400, 371, 214, 122, 123, 213
556, 371, 400, 401, 370, 213, 123, 124, 212
557, 370, 401, 402, 369, 212, 124, 125, 211
558, 369, 402, 403, 368, 211, 125, 126, 210
559, 368, 403, 404, 367, 210, 126, 127, 209
560, 367, 404, 405, 366, 209, 127, 128, 208
** ... 20 like lines cut
*Nset, nset=Bulk-1
   13,   14,   15,   16,   17,   18,   19,   20,   21,   22,   23,   24,  269,  270,  271,  272
  273,  274,  275,  276,  277,  278,  279,  280,  281,  282,  283,  284,  285,  286,  287,  288
  289,  290,  291,  292,  293,  294,  295,  296,  297,  298,  299,  300,  301,  302,  303,  304
  305,  306,  307,  308,  309,  310,  311,  312,  313,  314,  315,  316,  317,  318,  319,  320
  321,  322,  323,  324,  325,  326,  327,  328,  329,  330,  331,  332,  333,  334,  335,  336
  337,  338,  339,  340,  341,  342,  343,  344,  345,  346,  347,  348,  349,  350,  351,  352
  353,  354,  355,  356,  357,  358,  359,  360,  361,  362,  363,  364,  365,  366,  367,  368
  369,  370,  371,  372,  373,  374,  375,  376,  377,  378,  379,  380,  381,  382,  383,  384
  385,  386,  387,  388,  389,  390,  391,  392,  393,  394,  395,  396,  397,  398,  399,  400
  401,  402,  403,  404,  405,  406,  407,  408,  409,  410,  411,  412,  413,  414,  415,  416
  417,  418,  419,  420,  421,  422,  423,  424,  425,  426,  427,  428,  429,  430,  431,  432
  433,  434,  435,  436,  437,  438,  439,  440,  441,  442,  443,  444,  445,  446,  447,  448
  449,  450,  451,  452,  453,  454,  455,  456,  457,  458,  459,  460,  461,  462,  463,  464
  465,  466,  467,  468,  469,  470,  471,  472,  473,  474,  475,  476,  477,  478,  479,  480
  481,  482,  483,  484,  485,  486,  487,  488,  489,  490,  491,  492,  493,  494,  495,  496
  497,  498,  499,  500,  501,  502,  503,  504,  505,  506,  507,  508,  509,  510,  511,  512
  513,  514,  515,  516,  517,  518,  519,  520,  521,  522,  523,  524,  525,  526,  527,  528
  529,  530,  531,  532,  533,  534,  535,  536,  537,  538,  539,  540,  541,  542,  543,  544
  545,  546,  547,  548,  781,  782,  783,  784,  785,  786,  787,  788,  789,  790,  791,  792
  793,  794,  795,  796,  797,  798,  799,  800,  801,  802,  803,  804,  805,  806,  807,  808
** ... 57 like lines cut
*Elset, elset=Bulk-1
 181, 182, 183, 184, 185, 186, 187, 188, 189, 190, 191, 192, 193, 194, 195, 196
 197, 198, 199, 200, 201, 202, 203, 204, 205, 206, 207, 208, 209, 210, 211, 212
 213, 214, 215, 216, 217, 218, 219, 220, 221, 222, 223, 224, 225, 226, 227, 228
 229, 230, 231, 232, 233, 234, 235, 236, 237, 238, 239, 240, 241, 242, 243, 244
 245, 246, 247, 248, 249, 250, 251, 252, 253, 254, 255, 256, 257, 258, 259, 260
 261, 262, 263, 264, 265, 266, 267, 268, 269, 270, 271, 272, 273, 274, 275, 276
 277, 278, 279, 280, 281, 282, 283, 284, 285, 286, 287, 288, 289, 290, 291, 292
 293, 294, 295, 296, 297, 298, 299, 300, 301, 302, 303, 304, 305, 306, 307, 308
 309, 310, 311, 312, 313, 314, 315, 316, 317, 318, 319, 320, 321, 322, 323, 324
 325, 326, 327, 328, 329, 330, 331, 332, 333, 334, 335, 336, 337, 338, 339, 340
 341, 342, 343, 344, 345, 346, 347, 348, 349, 350, 351, 352, 353, 354, 355, 356
 357, 358, 359, 360, 361, 362, 363, 364, 365, 366, 367, 368, 369, 370, 371, 372
 373, 374, 375, 376, 377, 378, 379, 380, 381, 382, 383, 384, 385, 386, 387, 388
 389, 390, 391, 392, 393, 394, 395, 396, 397, 398, 399, 400, 401, 402, 403, 404
 405, 406, 407, 408, 409, 410, 411, 412, 413, 414, 415, 416, 417, 418, 419, 420
 421, 422, 423, 424, 425, 426, 427, 428, 429, 430, 431, 432, 433, 434, 435, 436
 437, 438, 439, 440, 441, 442, 443, 444, 445, 446, 447, 448, 449, 450, 451, 452
 453, 454, 455, 456, 457, 458, 459, 460, 461, 462, 463, 464, 465, 466, 467, 468
 469, 470, 471, 472, 473, 474, 475, 476, 477, 478, 479, 480, 481, 482, 483, 484
 485, 486, 487, 488, 489, 490, 491, 492, 493, 494, 495, 496, 497, 498, 499, 500
** ... 14 like lines cut
*Nset, nset=Bulk-2
   1,   2,   3,   4,   5,   6,   7,   8,   9,  10,  11,  12,  25,  26,  27,  28
  29,  30,  31,  32,  33,  34,  35,  36,  37,  38,  39,  40,  41,  42,  43,  44
  45,  46,  47,  48,  49,  50,  51,  52,  53,  54,  55,  56,  57,  58,  59,  60
  61,  62,  63,  64,  65,  66,  67,  68,  69,  70,  71,  72,  73,  74,  75,  76
  77,  78,  79,  80,  81,  82,  83,  84,  85,  86,  87,  88,  89,  90,  91,  92
  93,  94,  95,  96,  97,  98,  99, 100, 101, 102, 103, 104, 105, 106, 107, 108
 109, 110, 111, 112, 113, 114, 115, 116, 117, 118, 119, 120, 121, 122, 123, 124
 125, 126, 127, 128, 129, 130, 131, 132, 133, 134, 135, 136, 137, 138, 139, 140
 141, 142, 143, 144, 145, 146, 147, 148, 149, 150, 151, 152, 153, 154, 155, 156
 157, 158, 159, 160, 161, 162, 163, 164, 165, 166, 167, 168, 169, 170, 171, 172
 173, 174, 175, 176, 177, 178, 179, 180, 181, 182, 183, 184, 185, 186, 187, 188
 189, 190, 191, 192, 193, 194, 195, 196, 197, 198, 199, 200, 201, 202, 203, 204
 205, 206, 207, 208, 209, 210, 211, 212, 213, 214, 215, 216, 217, 218, 219, 220
 221, 222, 223, 224, 225, 226, 227, 228, 229, 230, 231, 232, 233, 234, 235, 236
 237, 238, 239, 240, 241, 242, 243, 244, 245, 246, 247, 248, 249, 250, 251, 252
 253, 254, 255, 256, 257, 258, 259, 260, 261, 262, 263, 264, 265, 266, 267, 268
 549, 550, 551, 552, 553, 554, 555, 556, 557, 558, 559, 560, 561, 562, 563, 564
 565, 566, 567, 568, 569, 570, 571, 572, 573, 574, 575, 576, 577, 578, 579, 580
 581, 582, 583, 584, 585, 586, 587, 588, 589, 590, 591, 592, 593, 594, 595, 596
 597, 598, 599, 600, 601, 602, 603, 604, 605, 606, 607, 608, 609, 610, 611, 612
** ... 11 like lines cut
*Elset, elset=Bulk-2, generate
   1,  180,    1
*Nset, nset=Cz
   5,   8,   9,  11,  17,  18,  19,  20, 109, 110, 111, 112, 113, 114, 115, 116
 117, 118, 119, 120, 121, 122, 123, 124, 125, 126, 127, 128, 129, 130, 131, 132
 133, 134, 135, 136, 137, 138, 139, 140, 141, 142, 143, 144, 145, 146, 147, 189
 190, 191, 192, 193, 194, 195, 196, 197, 198, 199, 200, 201, 202, 203, 204, 205
 206, 207, 208, 209, 210, 211, 212, 213, 214, 215, 216, 217, 218, 219, 220, 221
 222, 223, 224, 225, 226, 227, 347, 348, 349, 350, 351, 352, 353, 354, 355, 356
 357, 358, 359, 360, 361, 362, 363, 364, 365, 366, 367, 368, 369, 370, 371, 372
 373, 374, 375, 376, 377, 378, 379, 380, 381, 382, 383, 384, 385, 386, 387, 388
 389, 390, 391, 392, 393, 394, 395, 396, 397, 398, 399, 400, 401, 402, 403, 404
 405, 406, 407, 408, 409, 410, 411, 412, 413, 414, 415, 416, 417, 418, 419, 420
 421, 422, 423, 424
*Elset, elset=Cz, generate
 541,  580,    1
*Nset, nset=Top
 3, 4
*Elset, elset=Top
 20,
*Nset, nset=Bot
 22, 23
*Elset, elset=Bot
 741,
*Nset, nset=XEdges
   1,   2,   5,   8,   9,  10,  11,  12,  13,  14,  15,  16,  17,  18,  19,  20
 109, 110, 111, 112, 113, 114, 115, 116, 117, 118, 119, 120, 121, 122, 123, 124
 125, 126, 127, 128, 129, 130, 131, 132, 133, 134, 135, 136, 137, 138, 139, 140
 141, 142, 143, 144, 145, 146, 147, 150, 151, 152, 153, 154, 155, 156, 157, 158
 159, 160, 161, 162, 163, 164, 165, 166, 167, 168, 169, 170, 171, 172, 173, 174
 175, 176, 177, 178, 179, 180, 181, 182, 183, 184, 185, 186, 187, 188, 189, 190
 191, 192, 193, 194, 195, 196, 197, 198, 199, 200, 201, 202, 203, 204, 205, 206
 207, 208, 209, 210, 211, 212, 213, 214, 215, 216, 217, 218, 219, 220, 221, 222
 223, 224, 225, 226, 227, 230, 231, 232, 233, 234, 235, 236, 237, 238, 239, 240
 241, 242, 243, 244, 245, 246, 247, 248, 249, 250, 251, 252, 253, 254, 255, 256
 257, 258, 259, 260, 261, 262, 263, 264, 265, 266, 267, 268, 269, 270, 271, 272
 273, 274, 275, 276, 277, 278, 279, 280, 281, 282, 283, 284, 285, 286, 287, 288
 289, 290, 291, 292, 293, 294, 295, 296, 297, 298, 299, 300, 301, 302, 303, 304
 305, 306, 307, 308, 309, 310, 311, 312, 313, 314, 315, 316, 317, 318, 319, 320
 321, 322, 323, 324, 325, 326, 327, 328, 329, 330, 331, 332, 333, 334, 335, 336
 337, 338, 339, 340, 341, 342, 343, 344, 345, 346, 347, 348, 349, 350, 351, 352
 353, 354, 355, 356, 357, 358, 359, 360, 361, 362, 363, 364, 365, 366, 367, 368
 369, 370, 371, 372, 373, 374, 375, 376, 377, 378, 379, 380, 381, 382, 383, 384
 385, 386, 387, 388, 389, 390, 391, 392, 393, 394, 395, 396, 397, 398, 399, 400
 401, 402, 403, 404, 405, 406, 407, 408, 409, 410, 411, 412, 413, 414, 415, 416
 417, 418, 419, 420, 421, 422, 423, 424
*Elset, elset=XEdges
  61,  62,  63,  64,  65,  66,  67,  68,  69,  70,  71,  72,  73,  74,  75,  76
  77,  78,  79,  80,  81,  82,  83,  84,  85,  86,  87,  88,  89,  90,  91,  92
  93,  94,  95,  96,  97,  98,  99, 100, 141, 142, 143, 144, 145, 146, 147, 148
 149, 150, 151, 152, 153, 154, 155, 156, 157, 158, 159, 160, 161, 162, 163, 164
 165, 166, 167, 168, 169, 170, 171, 172, 173, 174, 175, 176, 177, 178, 179, 180
 181, 182, 183, 184, 185, 186, 187, 188, 189, 190, 191, 192, 193, 194, 195, 196
 197, 198, 199, 200, 201, 202, 203, 204, 205, 206, 207, 208, 209, 210, 211, 212
 213, 214, 215, 216, 217, 218, 219, 220, 501, 502, 503, 504, 505, 506, 507, 508
 509, 510, 511, 512, 513, 514, 515, 516, 517, 518, 519, 520, 521, 522, 523, 524
 525, 526, 527, 528, 529, 530, 531, 532, 533, 534, 535, 536, 537, 538, 539, 540
 541, 542, 543, 544, 545, 546, 547, 548, 549, 550, 551, 552, 553, 554, 555, 556
 557, 558, 559, 560, 561, 562, 563, 564, 565, 566, 567, 568, 569, 570, 571, 572
 573, 574, 575, 576, 577, 578, 579, 580
*Nset, nset=XCrack
   1,   2,   3,   4,   5,   6,   7,   8,  13,  14,  17,  20,  21,  22,  23,  24
  25,  26,  27,  28,  29,  30,  31,  32,  33,  34,  35,  36,  37,  38,  39,  40
  41,  42,  43,  44,  45,  46,  47,  48,  49,  50,  51,  52,  53,  54,  55,  56
  57,  58,  59,  60,  61,  62,  63,  64,  65,  66,  67,  68,  69,  70,  71,  72
  73,  74,  75,  76,  77,  78,  79,  80,  81,  82,  83,  84,  85,  86,  87,  88
  89,  90,  91,  92,  93,  94,  95,  96,  97,  98,  99, 100, 457, 458, 459, 460
 461, 462, 463, 464, 465, 466, 467, 468, 469, 470, 471, 472, 473, 474, 475, 476
 477, 478, 479, 480, 481, 482, 483, 484, 485, 486, 487, 488, 489, 490, 491, 492
 493, 494, 503, 504, 505, 506, 507, 508, 509, 510, 511, 512, 513, 514, 515, 516
 517, 518, 519, 520, 521, 522, 523, 524, 525, 526, 527, 528, 529, 530, 531, 532
 533, 534, 535, 536, 537, 538, 539, 540
*Elset, elset=XCrack
   1,   2,   3,   4,   5,   6,   7,   8,   9,  10,  11,  12,  13,  14,  15,  16
  17,  18,  19,  20,  41,  42,  43,  44,  45,  46,  47,  48,  49,  50,  51,  52
  53,  54,  55,  56,  57,  58,  59,  60, 581, 582, 583, 584, 585, 586, 587, 588
 589, 590, 591, 592, 593, 594, 595, 596, 597, 598, 599, 600, 741, 742, 743, 744
 745, 746, 747, 748, 749, 750, 751, 752, 753, 754, 755, 756, 757, 758, 759, 760
*Nset, nset=YEdges, generate
  1,  24,   1
*Elset, elset=YEdges
   1,  20,  41,  60,  61, 100, 141, 180, 181, 220, 501, 540, 541, 580, 581, 600
 741, 760
*Nset, nset=ZEdges
   1,   2,   3,   4,   5,   6,   7,   8,   9,  10,  11,  12,  13,  14,  15,  16
  17,  18,  19,  20,  21,  22,  23,  24, 101, 102, 103, 104, 105, 106, 107, 108
 148, 149, 228, 229, 425, 426, 427, 428, 429, 430, 431, 432, 433, 434, 435, 436
 437, 438, 439, 440, 441, 442, 443, 444, 445, 446, 447, 448, 449, 450, 451, 452
 453, 454, 455, 456, 495, 496, 497, 498, 499, 500, 501, 502, 541, 542, 543, 544
 545, 546, 547, 548
*Elset, elset=ZEdges
   1,  20,  21,  40,  41,  60,  61, 100, 101, 140, 141, 180, 181, 220, 221, 260
 261, 300, 301, 340, 341, 380, 381, 420, 421, 460, 461, 500, 501, 540, 581, 600
 601, 620, 621, 640, 641, 660, 661, 680, 681, 700, 701, 720, 721, 740, 741, 760
*Nset, nset=Sides, generate
    1,  1708,     1
*Elset, elset=Sides
   1,   2,   3,   4,   5,   6,   7,   8,   9,  10,  11,  12,  13,  14,  15,  16
  17,  18,  19,  20,  21,  22,  23,  24,  25,  26,  27,  28,  29,  30,  31,  32
  33,  34,  35,  36,  37,  38,  39,  40,  41,  42,  43,  44,  45,  46,  47,  48
  49,  50,  51,  52,  53,  54,  55,  56,  57,  58,  59,  60,  61,  62,  63,  64
  65,  66,  67,  68,  69,  70,  71,  72,  73,  74,  75,  76,  77,  78,  79,  80
  81,  82,  83,  84,  85,  86,  87,  88,  89,  90,  91,  92,  93,  94,  95,  96
  97,  98,  99, 100, 101, 102, 103, 104, 105, 106, 107, 108, 109, 110, 111, 112
 113, 114, 115, 116, 117, 118, 119, 120, 121, 122, 123, 124, 125, 126, 127, 128
 129, 130, 131, 132, 133, 134, 135, 136, 137, 138, 139, 140, 141, 142, 143, 144
 145, 146, 147, 148, 149, 150, 151, 152, 153, 154, 155, 156, 157, 158, 159, 160
 161, 162, 163, 164, 165, 166, 167, 168, 169, 170, 171, 172, 173, 174, 175, 176
 177, 178, 179, 180, 181, 182, 183, 184, 185, 186, 187, 188, 189, 190, 191, 192
 193, 194, 195, 196, 197, 198, 199, 200, 201, 202, 203, 204, 205, 206, 207, 208
 209, 210, 211, 212, 213, 214, 215, 216, 217, 218, 219, 220, 221, 222, 223, 224
 225, 226, 227, 228, 229, 230, 231, 232, 233, 234, 235, 236, 237, 238, 239, 240
 241, 242, 243, 244, 245, 246, 247, 248, 249, 250, 251, 252, 253, 254, 255, 256
 257, 258, 259, 260, 261, 262, 263, 264, 265, 266, 267, 268, 269, 270, 271, 272
 273, 274, 275, 276, 277, 278, 279, 280, 281, 282, 283, 284, 285, 286, 287, 288
 289, 290, 291, 292, 293, 294, 295, 296, 297, 298, 299, 300, 301, 302, 303, 304
 305, 306, 307, 308, 309, 310, 311, 312, 313, 314, 315, 316, 317, 318, 319, 320
** ... 25 like lines cut
*Orientation, name=Ori-2
1., 0., 0., 0., 1., 0.
1, 0.
** Section: Section-3
*Solid Section, elset=Bulk-2, orientation=Ori-2, material=Material-3
,
*Orientation, name=Ori-1
1., 0., 0., 0., 1., 0.
1, 0.
** Section: Section-1
*Solid Section, elset=Bulk-1, orientation=Ori-1, material=Material-1
,
** Section: Section-2
*Cohesive Section, elset=Cz, material=Material-2, response=TRACTION SEPARATION
, 
*End Part
**  
**
** ASSEMBLY
**
*Assembly, name=Assembly
**  
*Instance, name=Part-1-1, part=Part-1
*End Instance
**  
*Node
      1,           0.,          0.5,           0.
*Node
      2,           0.,          0.5,   6.80000019
*Nset, nset=BotL
 1,
*Nset, nset=TopL
 2,
*Surface, type=NODE, name=Part-1-1_Bot_CNS_, internal
Part-1-1.Bot, 1.
*Surface, type=NODE, name=Part-1-1_Top_CNS_, internal
Part-1-1.Top, 1.
** Constraint: Constraint-1
*Coupling, constraint name=Constraint-1, ref node=BotL, surface=Part-1-1_Bot_CNS_
*Kinematic
1, 1
2, 2
3, 3
** Constraint: Constraint-2
*Coupling, constraint name=Constraint-2, ref node=TopL, surface=Part-1-1_Top_CNS_
*Kinematic
1, 1
2, 2
3, 3
*End Assembly
** 
** MATERIALS
** 
*Material, name=Material-1
*Density
 1.8e-09,
*Elastic, type=ENGINEERING CONSTANTS
109000.,8819.,8819., 0.34, 0.34, 0.38,4315.,4315.
3200.,
*Material, name=Material-2
*Damage Initiation, criterion=QUADS
 4.2,42.,42.
*Damage Evolution, type=ENERGY, mixed mode behavior=BK, power=2.02512
 0.42, 4.2, 4.2
*Density
 1.8e-09,
*Elastic, type=TRACTION
1250.,1250.,1250.
*Material, name=Material-3
*Density
 1.8e-09,
*Elastic, type=ENGINEERING CONSTANTS
109000.,8819.,8819., 0.34, 0.34, 0.38,4315.,4315.
3200.,
** ----------------------------------------------------------------
** 
** STEP: Step-1
** 
*Step, name=Step-1, nlgeom=YES, inc=1000000000, unsymm=YES
*Dynamic,application=QUASI-STATIC,initial=NO
0.1,1.,1e-05,0.1
** 
** BOUNDARY CONDITIONS
** 
** Name: BC-1 Type: Displacement/Rotation
*Boundary
BotL, 1, 1
BotL, 3, 3
** Name: BC-2 Type: Displacement/Rotation
*Boundary
TopL, 1, 1
TopL, 3, 3, 20.
** Name: BC-3 Type: Displacement/Rotation
*Boundary
Part-1-1.Sides, 2, 2
** 
** CONTROLS
** 
*Controls, reset
*Controls, parameters=time incrementation
200, 200, , 200, 200, , 20, 50, , , 
*Controls, parameters=line search
4, 4., 0.25, , 0.15
*Controls, parameters=field, field=displacement
0.05, 1., , , , , , 
** 
** OUTPUT REQUESTS
** 
*Restart, write, frequency=0
** 
** FIELD OUTPUT: F-Output-1
** 
*Output, field
*Node Output
RF, U
*Element Output, directions=YES
EEQUT, LE, S, SDEG, SDV, SEQUT, STATUS, TE, TEEQ, TEVOL
** 
** HISTORY OUTPUT: H-Output-1
** 
*Output, history, frequency=1
*Node Output, nset=TopL
RT, UT
*End Step
